Version 4
SHEET 1 1632 2744
WIRE 368 1536 96 1536
WIRE 544 1536 368 1536
WIRE 544 1568 192 1568
WIRE 96 1584 96 1536
WIRE 192 1584 192 1568
WIRE 368 1600 368 1536
WIRE 544 1600 368 1600
WIRE 704 1632 704 1568
WIRE 896 1632 704 1632
WIRE 896 1664 688 1664
WIRE 1248 1664 1056 1664
WIRE 528 1776 96 1776
WIRE 96 1808 96 1776
WIRE 528 1808 176 1808
WIRE 688 1808 688 1664
WIRE 368 1840 368 1600
WIRE 528 1840 368 1840
WIRE 368 1856 368 1840
WIRE 896 1872 896 1696
WIRE 368 1904 368 1856
WIRE 896 1904 896 1872
FLAG 1248 1664 out
IOPIN 1248 1664 Out
FLAG 368 1984 0
FLAG 896 1984 0
FLAG 896 1872 s1
IOPIN 896 1872 In
FLAG 368 1856 s0
IOPIN 368 1856 In
SYMBOL 2_mux 624 1568 R0
SYMATTR InstName X1
SYMBOL 2_mux 608 1808 R0
SYMATTR InstName X2
SYMBOL 2_mux 976 1664 R0
SYMATTR InstName X3
SYMBOL voltage 368 1888 R0
WINDOW 123 0 0 Left 0
WINDOW 39 0 0 Left 0
SYMATTR InstName V1
SYMATTR Value PULSE(0 5 0 5ns 5ns 20 40)
SYMBOL voltage 896 1888 R0
WINDOW 123 0 0 Left 0
WINDOW 39 0 0 Left 0
SYMATTR InstName V2
SYMATTR Value PULSE(0 5 0 5ns 5ns 10 20)
SYMBOL voltage 176 1792 R0
SYMATTR InstName V3
SYMATTR Value PULSE(0 5 0 5ns 5ns 20 40)
SYMBOL voltage 96 1792 R0
SYMATTR InstName V4
SYMATTR Value PULSE(0 5 0 5ns 5ns 10 20)
SYMBOL voltage 192 1568 R0
SYMATTR InstName V5
SYMATTR Value PULSE(0 5 0 5ns 5ns 20 40)
SYMBOL voltage 96 1568 R0
SYMATTR InstName V6
SYMATTR Value PULSE(0 5 0 5ns 5ns 10 20)
TEXT 62 2004 Left 2 !.tran 80
