Version 4
SHEET 1 1068 680
WIRE 224 0 16 0
WIRE 464 0 240 0
WIRE 16 80 16 0
WIRE 48 80 16 80
WIRE 224 80 224 0
WIRE 256 80 224 80
WIRE 224 96 224 80
WIRE 224 96 208 96
WIRE 464 96 464 0
WIRE 464 96 416 96
WIRE 496 96 464 96
WIRE 592 96 496 96
WIRE 48 112 -96 112
WIRE 240 112 240 0
WIRE 256 112 240 112
WIRE 496 128 496 96
WIRE 512 128 496 128
WIRE 592 128 576 128
WIRE 128 160 -96 160
WIRE 336 160 128 160
FLAG -96 112 D
IOPIN -96 112 In
FLAG -96 160 clk
IOPIN -96 160 In
FLAG 592 96 Q
IOPIN 592 96 Out
FLAG 592 128 Qinv
IOPIN 592 128 Out
FLAG 224 80 Q1
SYMBOL 2_1_mux 112 96 R0
SYMATTR InstName X1
SYMBOL 2_1_mux 320 96 R0
SYMATTR InstName X2
SYMBOL Digital\\inv 512 64 R0
WINDOW 3 8 60 Left 2
SYMATTR Value Vhigh = 5V , Vlow = 0V, Ref = 2.5 ,  td = 0.1ms
SYMATTR InstName A1
