Version 4
SHEET 1 880 680
WIRE 48 32 32 32
WIRE 160 32 48 32
WIRE 272 80 224 80
WIRE 352 80 272 80
WIRE 160 96 144 96
WIRE 144 112 144 96
WIRE 240 112 144 112
WIRE 272 128 272 80
WIRE 272 128 144 128
WIRE 144 176 144 128
WIRE 160 176 144 176
WIRE 240 224 240 112
WIRE 240 224 224 224
WIRE 352 224 240 224
WIRE 48 240 32 240
WIRE 160 240 48 240
FLAG 32 32 R
IOPIN 32 32 In
FLAG 32 240 S
IOPIN 32 240 In
FLAG 352 80 Q
IOPIN 352 80 Out
FLAG 352 224 Qdash
IOPIN 352 224 Out
SYMBOL Digital\\or 192 0 R0
SYMATTR InstName A1
SYMBOL Digital\\or 192 144 R0
SYMATTR InstName A2
SYMBOL voltage 48 16 R0
WINDOW 123 0 0 Left 0
WINDOW 39 0 0 Left 0
SYMATTR InstName V1
SYMATTR Value PULSE(0 5 0 1ms 1ms 10 20)
SYMBOL voltage 48 224 R0
WINDOW 123 0 0 Left 0
WINDOW 39 0 0 Left 0
SYMATTR InstName V2
SYMATTR Value PULSE(0 5 0 1ms 1ms 20 40)
TEXT -42 340 Left 2 !.tran 80
