Version 4
SHEET 1 920 680
SYMBOL Digital\\or 816 -128 R0
SYMATTR InstName A1
SYMBOL Digital\\or 880 208 R0
SYMATTR InstName A2
TEXT -2 352 Left 2 !.tran 80
